reduced_networks/ieee37/77pct/dss/Shunts.dss
! Kron-equivalent grounded shunts
new Reactor.sh_3 phases=3 bus1=701.1.2.3 bus2=701.0.0.0 rmatrix=[-6.673101974132218e-13 | 1.414957187892997e-07 -3.395914939991199e-06 | 3.537442171787974e-08 -2.122446877523905e-07 -1.131968992486178e-06] xmatrix=[-25243.67945502326 | -5.659925794064372e-07 -25243.67945389128 | 2.829910651700252e-07 5.659874829672863e-07 -25243.67945502326]
new Reactor.sh_4 phases=3 bus1=702.1.2.3 bus2=702.0.0.0 rmatrix=[0.01191839983255889 | 0.003850763477623692 0.01196272005356036 | 0.003610081386810839 0.003849070692126588 0.01191162869957907] xmatrix=[-18615.24618270153 | 0.001785734416813833 -18615.24649109517 | 0.001314064052425733 0.001788812204106094 -18615.24617162153]
new Reactor.sh_5 phases=3 bus1=703.1.2.3 bus2=703.0.0.0 rmatrix=[0.01460005551466982 | 0.004108165471190485 0.01468458587044097 | 0.003862182926819332 0.0040929500354423 0.01460850853624152] xmatrix=[-30850.04801514697 | 0.002019853504546493 -30850.04834312409 | 0.001533381922659788 0.002026193251872144 -30850.04801683757]
new Reactor.sh_6 phases=3 bus1=730.1.2.3 bus2=730.0.0.0 rmatrix=[0.03838382643051499 | 0.01438386911863066 0.03857243329082394 | 0.0135493815844208 0.014410619291084 0.0383240477747222] xmatrix=[-42082.66389924091 | 3.666137133045926 -42082.66501631586 | 3.664378747660121 3.666093868873844 -42082.6638378898]
new Reactor.sh_7 phases=3 bus1=720.1.2.3 bus2=720.0.0.0 rmatrix=[0.05223700310537402 | 0.0144292837877441 0.05251380761768587 | 0.0136141133113619 0.01443196405460156 0.05222296801546378] xmatrix=[-20951.02746073599 | 0.007190474818697171 -20951.02852720202 | 0.005456339769192873 0.007199417286336982 -20951.02745332869]
new Reactor.sh_8 phases=3 bus1=734.1.2.3 bus2=734.0.0.0 rmatrix=[0.06090156485430521 | 0.0194944377792472 0.06127703349265978 | 0.01838075222525662 0.01949712130596648 0.06090320780995828] xmatrix=[-15704.91196807562 | 0.0940296993861003 -15704.91345023087 | 0.09168336891739665 0.09402693374013825 -15704.91196478967]
new Reactor.sh_9 phases=3 bus1=799r.1.2.3 bus2=799r.0.0.0 rmatrix=[-1.133434510778593e-06 | -7.438140928890093e-07 0.0001450793171971959 | 3.63889344203734e-13 2.479372310448808e-07 3.40029507040001e-06] xmatrix=[-35722.97836033681 | -1.983506938421859e-06 -35722.97836487053 | 1.081578672488766e-12 -8.500712386468377e-07 -35722.97836260368]
